<additional xmlns:xsi="http://www.w3.org/2001/XMLSchema-instance" xsi:noNamespaceSchemaLocation="http://sumo.dlr.de/xsd/additional_file.xsd">

	<edgeData id="1" file="/home/mgarg/simulation/sumo_simulation/mpr_0.2/results/edgedata.out.xml" begin="0" end="86400" freq="1800"/>
	
    <inductionLoop id="M50_Northbound-1" lane="360361373.2643_0" pos="193" freq="300" file="/home/mgarg/simulation/sumo_simulation/mpr_0.2/results/loopsensordata.out.xml"/>
	<inductionLoop id="M50_Northbound-2" lane="360361373.2643_1" pos="193" freq="300" file="/home/mgarg/simulation/sumo_simulation/mpr_0.2/results/loopsensordata.out.xml"/>
	<inductionLoop id="M50_Northbound-3" lane="360361373.2643_2" pos="193" freq="300" file="/home/mgarg/simulation/sumo_simulation/mpr_0.2/results/loopsensordata.out.xml"/>
	<inductionLoop id="M50_Northbound-4" lane="360361373.2643_3" pos="193" freq="300" file="/home/mgarg/simulation/sumo_simulation/mpr_0.2/results/loopsensordata.out.xml"/>
	<inductionLoop id="M50_Southbound-4" lane="48290550_3" pos="550" freq="300" file="/home/mgarg/simulation/sumo_simulation/mpr_0.2/results/loopsensordata.out.xml"/>
	<inductionLoop id="M50_Southbound-3" lane="48290550_2" pos="550" freq="300" file="/home/mgarg/simulation/sumo_simulation/mpr_0.2/results/loopsensordata.out.xml"/>
	<inductionLoop id="M50_Southbound-2" lane="48290550_1" pos="550" freq="300" file="/home/mgarg/simulation/sumo_simulation/mpr_0.2/results/loopsensordata.out.xml"/>
	<inductionLoop id="M50_Southbound-1" lane="48290550_0" pos="550" freq="300" file="/home/mgarg/simulation/sumo_simulation/mpr_0.2/results/loopsensordata.out.xml"/>

</additional>

